LAMMPS (29 Aug 2024 - Development - 2995cb76ae)
# Sample LAMMPS input script for thermal conductivity of liquid LJ: thermostatting 2 regions via fix langevin

# SETTINGS
variable        x equal 10
variable        y equal 10
variable        z equal 20

variable        rho equal 0.6   # Reduced density. For fcc unit cell, the formula appears to be rho*=4/V^3. Sigma may be just 1.
variable        rc equal 2.5
variable        tlo equal 1.0
variable        thi equal 1.70
variable        t equal 1.35    # Midway between tlo and thi

# PROBLEM SETUP
units           lj
atom_style      atomic

lattice         fcc 0.6
Lattice spacing in x,y,z = 1.8820721 1.8820721 1.8820721
region          box block 0 $x 0 $y 0 $z
region          box block 0 10 0 $y 0 $z
region          box block 0 10 0 10 0 $z
region          box block 0 10 0 10 0 20
create_box      1 box
Created orthogonal box = (0 0 0) to (18.820721 18.820721 37.641441)
create_atoms    1 box
Created 8000 atoms
mass            1 1.0

velocity        all create $t 87287
velocity        all create 1.35 87287

pair_style      lj/cut 2.5
pair_coeff      1 1 1.0 1.0     # epsilon, sigma

# Heat layers
region          hot block INF INF INF INF 0 1
region          cold block  INF INF INF INF 10 11
compute         Thot all temp/region hot
compute         Tcold all temp/region cold

# EQUILIBRATION 1
# Equilibrate the system with a single temperature, t
fix             1 all nvt temp $t $t 0.5
fix             1 all nvt temp 1.35 $t 0.5
fix             1 all nvt temp 1.35 1.35 0.5
thermo          100

shell if [ -d equil_1 ]; then rm -rf equil_1; fi
shell mkdir equil_1
dump            1 all custom 100 equil_1/dump.equil_*.cfg id mass type x y z
run             20000
Generated 0 of 0 mixed pair_coeff terms from geometric mixing rule
Step          Temp          E_pair         E_mol          TotEng         Press
0   1.35          -4.1241917      0             -2.0994448     -3.1961613
Averages over the last 101 of 201 rows, steps 10000 to 20000:
Temp E_pair E_mol TotEng Press
1.34955 -3.71003 0 -1.68596 0.840505
Loop time of 79.477 on 1 procs for 20000 steps with 8000 atoms

velocity        all scale $t
velocity        all scale 1.35

unfix           1
undump          1

# EQUILIBRATION 2
# Equilibrate the hot and cold regions
reset_timestep  0

fix             1 all nve

# tally will keep track of energy changes in the hot and cold regions
fix             hot all langevin 1.7 1.7 1.0 59804 tally yes
fix_modify      hot temp Thot

fix             cold all langevin 1 1 1.0 287859 tally yes
fix_modify      cold temp Tcold

variable        step equal step
variable        tdiff equal c_Thot-c_Tcold

thermo_style    custom step temp c_Thot c_Tcold f_hot f_cold v_tdiff
thermo_modify   colname c_Thot Temp_hot colname c_Tcold Temp_cold                 colname f_hot E_hot colname f_cold E_cold                 colname v_tdiff dTemp_step
thermo          1000

shell if [ -d equil_2 ]; then rm -rf equil_2; fi
shell mkdir equil_2
dump            2 all custom 100 equil_2/dump.equil_*.cfg id mass type x y z

run             20000
Generated 0 of 0 mixed pair_coeff terms from geometric mixing rule
Step          Temp         Temp_hot      Temp_cold        E_hot          E_cold       dTemp_step
0   1.35           1.3611235      1.2760757     -0             -0              0.08504786
Averages over the last 11 of 21 rows, steps 10000 to 20000:
Temp Temp_hot Temp_cold E_hot E_cold dTemp_step
1.29797 1.59985 1.05123 -0.787113 0.931891 0.548622
Loop time of 99.2606 on 1 procs for 20000 steps with 8000 atoms

undump          2

# THERMAL CONDUCTIVITY
# Collect information following the previous equilibration
reset_timestep  0

# Every atom has an average kinetic energy of ‚Å†3/2 kB T in thermal equilibrium. In lj units, kB = 1
compute         ke all ke/atom
variable        temp atom c_ke/1.5

fix             1 all nve

# Reset langevin thermostats to zero energy accumulation
fix             hot all langevin 1.7 1.7 1.0 59804 tally yes
fix_modify      hot temp Thot

fix             cold all langevin 1 1 1.0 287859 tally yes
fix_modify      cold temp Tcold

# Calculates the running average of the temperature difference between the hot and cold regions
# Input values every 10 steps. Running average is updated every 1000 steps, updated using the latest 100 samples.
fix             ave all ave/time 10 100 1000 v_tdiff ave running file ave_tdiff.dat

thermo          1000
thermo_style    custom step temp c_Thot c_Tcold f_hot f_cold v_tdiff f_ave
thermo_modify   colname c_Thot Temp_hot colname c_Tcold Temp_cold                 colname f_hot E_hot colname f_cold E_cold                 colname v_tdiff dTemp_step colname f_ave dTemp_ave

# Bin the atoms into 20 layers along the z-axis
compute         layers all chunk/atom bin/1d z lower 0.05 units reduced

# Block average - Input values every 10 steps (average v_temp in each layer)
# In each layer, calculate the average temperature every 1000 steps, using the latest 100 samples.
# Coord1 in profile.langevin represents the center point of the bin
#fix             test all ave/chunk 10 1 10 layers v_temp file profile.langevin_test # For testing average v_temp in each layer
fix             2 all ave/chunk 10 100 1000 layers v_temp file profile.langevin

variable start_time equal time

# f_hot and f_cold are the cumulative energies removed/added in the hot and cold regions, respectively.
# 0.5 * (abs(f_hot) + abs(f_cold)) is delta Q is the average of the total out/in energy for the 2 regions.
# A/2 since energy flux goes in 2 directions due to periodic z.
# lz/2.0 is the distance from the middle of the hot region to the middle of the cold region.
variable kappa equal (0.5*(abs(f_hot)+abs(f_cold))/(time-0)/(lx*ly)/2.0)*(lz/2.0)/(f_ave + 1e-10)
ERROR: Illegal variable command: expected 3 arguments but found 5 (src/variable.cpp:449)
